<?xml version="1.0" encoding="UTF-8"?>

<!-- generated on Monday 01 June 2020 09:47:08 AM IST by Eclipse SUMO netedit Version 1.6.0
<configuration xmlns:xsi="http://www.w3.org/2001/XMLSchema-instance" xsi:noNamespaceSchemaLocation="http://sumo.dlr.de/xsd/netconvertConfiguration.xsd">

    <input>
        <sumo-net-file value="iitb_full.net.xml"/>
    </input>

    <output>
        <output-file value="iitb_full.net.xml"/>
        <plain-output-prefix value="/home/sdeepakmallya/ros_ws/src/tpbp_versions/graph_sumo/iitb_full"/>
    </output>

    <processing>
        <geometry.min-radius.fix.railways value="false"/>
        <geometry.max-grade.fix value="false"/>
        <offset.disable-normalization value="true"/>
        <lefthand value="true"/>
    </processing>

    <junctions>
        <no-turnarounds value="true"/>
        <junctions.corner-detail value="5"/>
        <junctions.limit-turn-speed value="5.5"/>
        <rectangular-lane-cut value="false"/>
    </junctions>

    <pedestrian>
        <walkingareas value="false"/>
    </pedestrian>

    <report>
        <aggregate-warnings value="5"/>
    </report>

</configuration>
-->

<edges version="1.6" xmlns:xsi="http://www.w3.org/2001/XMLSchema-instance" xsi:noNamespaceSchemaLocation="http://sumo.dlr.de/xsd/edges_file.xsd">
    <edge id="-366913701#0" from="668660552" to="667354765" priority="4" type="highway.unclassified" numLanes="1" speed="8.33" disallow="tram rail_urban rail rail_electric rail_fast ship"/>
    <edge id="-366913701#1" from="5879215645" to="668660552" priority="4" type="highway.unclassified" numLanes="1" speed="8.33" disallow="tram rail_urban rail rail_electric rail_fast ship"/>
    <edge id="-366913701#10" from="5077600694" to="6568909595" priority="4" type="highway.unclassified" numLanes="1" speed="8.33" shape="1871.46,1592.82 1890.13,1575.15 1907.22,1527.46 1908.53,1505.36" disallow="tram rail_urban rail rail_electric rail_fast ship"/>
    <edge id="-366913701#11" from="668672700" to="5077600694" priority="4" type="highway.unclassified" numLanes="1" speed="8.33" shape="1743.56,1652.79 1852.16,1611.05 1871.46,1592.82" disallow="tram rail_urban rail rail_electric rail_fast ship"/>
    <edge id="-366913701#12" from="6583550562" to="668672700" priority="4" type="highway.unclassified" numLanes="1" speed="8.33" disallow="tram rail_urban rail rail_electric rail_fast ship"/>
    <edge id="-366913701#13" from="245674992" to="6583550562" priority="4" type="highway.unclassified" numLanes="1" speed="8.33" shape="1409.34,1790.02 1580.46,1719.76 1653.92,1690.19" disallow="tram rail_urban rail rail_electric rail_fast ship"/>
    <edge id="-366913701#14" from="668672574" to="245674992" priority="4" type="highway.unclassified" numLanes="1" speed="8.33" disallow="tram rail_urban rail rail_electric rail_fast ship"/>
    <edge id="-366913701#15" from="6571330023" to="668672574" priority="4" type="highway.unclassified" numLanes="1" speed="8.33" disallow="tram rail_urban rail rail_electric rail_fast ship"/>
    <edge id="-366913701#16" from="5280437313" to="6571330023" priority="4" type="highway.unclassified" numLanes="1" speed="8.33" disallow="tram rail_urban rail rail_electric rail_fast ship"/>
    <edge id="-366913701#17" from="5280437314" to="5280437313" priority="4" type="highway.unclassified" numLanes="1" speed="8.33" disallow="tram rail_urban rail rail_electric rail_fast ship"/>
    <edge id="-366913701#18" from="4348259324" to="5280437314" priority="4" type="highway.unclassified" numLanes="1" speed="8.33" shape="1056.21,1910.13 1091.26,1899.98 1164.38,1879.90" disallow="tram rail_urban rail rail_electric rail_fast ship"/>
    <edge id="-366913701#19" from="4348259319" to="4348259324" priority="4" type="highway.unclassified" numLanes="1" speed="8.33" shape="955.53,1934.43 1003.80,1923.99 1036.25,1915.99 1056.21,1910.13" disallow="tram rail_urban rail rail_electric rail_fast ship"/>
    <edge id="-366913701#2" from="5879215650" to="5879215645" priority="4" type="highway.unclassified" numLanes="1" speed="8.33" disallow="tram rail_urban rail rail_electric rail_fast ship"/>
    <edge id="-366913701#3" from="667357311" to="5879215650" priority="4" type="highway.unclassified" numLanes="1" speed="8.33" shape="1978.12,921.95 1988.85,890.54 1994.59,875.47" disallow="tram rail_urban rail rail_electric rail_fast ship"/>
    <edge id="-366913701#4" from="5879215643" to="667357311" priority="4" type="highway.unclassified" numLanes="1" speed="8.33" shape="1920.85,1126.55 1920.23,1079.19 1937.00,1013.57 1978.12,921.95" disallow="tram rail_urban rail rail_electric rail_fast ship"/>
    <edge id="-366913701#5" from="668699249" to="5879215643" priority="4" type="highway.unclassified" numLanes="1" speed="8.33" disallow="tram rail_urban rail rail_electric rail_fast ship"/>
    <edge id="-366913701#6" from="667357325" to="668699249" priority="4" type="highway.unclassified" numLanes="1" speed="8.33" disallow="tram rail_urban rail rail_electric rail_fast ship"/>
    <edge id="-366913701#7" from="6568909594" to="667357325" priority="4" type="highway.unclassified" numLanes="1" speed="8.33" disallow="tram rail_urban rail rail_electric rail_fast ship"/>
    <edge id="-366913701#8" from="3215340463" to="6568909594" priority="4" type="highway.unclassified" numLanes="1" speed="8.33" disallow="tram rail_urban rail rail_electric rail_fast ship"/>
    <edge id="-366913701#9" from="6568909595" to="3215340463" priority="4" type="highway.unclassified" numLanes="1" speed="8.33" disallow="tram rail_urban rail rail_electric rail_fast ship"/>
    <edge id="-39093477#0" from="5366445084" to="668672700" priority="4" type="highway.unclassified" numLanes="1" speed="13.89" disallow="tram rail_urban rail rail_electric rail_fast ship"/>
    <edge id="-39093477#1" from="5366445083" to="5366445084" priority="4" type="highway.unclassified" numLanes="1" speed="13.89" disallow="tram rail_urban rail rail_electric rail_fast ship"/>
    <edge id="-39093477#10" from="cluster_4348259335_7265460758" to="4348259333" priority="4" type="highway.unclassified" numLanes="1" speed="13.89" shape="2206.84,2061.42 2195.64,2091.10 2176.67,2116.23" disallow="tram rail_urban rail rail_electric rail_fast ship"/>
    <edge id="-39093477#12" from="667357419" to="cluster_4348259335_7265460758" priority="4" type="highway.unclassified" numLanes="1" speed="13.89" shape="2209.53,2013.37 2208.66,2050.58" disallow="tram rail_urban rail rail_electric rail_fast ship"/>
    <edge id="-39093477#13" from="667357412" to="667357419" priority="4" type="highway.unclassified" numLanes="1" speed="13.89" disallow="tram rail_urban rail rail_electric rail_fast ship"/>
    <edge id="-39093477#2" from="5366445082" to="5366445083" priority="4" type="highway.unclassified" numLanes="1" speed="13.89" disallow="tram rail_urban rail rail_electric rail_fast ship"/>
    <edge id="-39093477#3" from="668672704" to="5366445082" priority="4" type="highway.unclassified" numLanes="1" speed="13.89" disallow="tram rail_urban rail rail_electric rail_fast ship"/>
    <edge id="-39093477#4" from="6573701524" to="668672704" priority="4" type="highway.unclassified" numLanes="1" speed="13.89" disallow="tram rail_urban rail rail_electric rail_fast ship"/>
    <edge id="-39093477#5" from="668612331" to="6573701524" priority="4" type="highway.unclassified" numLanes="1" speed="13.89" disallow="tram rail_urban rail rail_electric rail_fast ship"/>
    <edge id="-39093477#6" from="667357421" to="668612331" priority="4" type="highway.unclassified" numLanes="1" speed="13.89" shape="1946.18,2225.23 1913.58,2174.94 1907.87,2166.43" disallow="tram rail_urban rail rail_electric rail_fast ship"/>
    <edge id="-39093477#7" from="1990860600" to="667357421" priority="4" type="highway.unclassified" numLanes="1" speed="13.89" shape="2062.41,2211.25 2039.56,2226.27 1996.13,2243.47 1982.61,2246.15 1973.17,2244.91 1957.54,2238.73 1946.18,2225.23" disallow="tram rail_urban rail rail_electric rail_fast ship"/>
    <edge id="-39093477#8" from="4348259325" to="1990860600" priority="4" type="highway.unclassified" numLanes="1" speed="13.89" shape="2126.28,2161.54 2085.46,2196.89 2062.41,2211.25" disallow="tram rail_urban rail rail_electric rail_fast ship"/>
    <edge id="-39093477#9" from="4348259333" to="4348259325" priority="4" type="highway.unclassified" numLanes="1" speed="13.89" shape="2176.67,2116.23 2150.30,2140.75 2126.28,2161.54" disallow="tram rail_urban rail rail_electric rail_fast ship"/>
    <edge id="-436993177#0" from="4348259331" to="4348259325" priority="1" type="highway.unclassified" numLanes="1" speed="5.56" shape="2094.81,2072.34 2096.33,2121.73 2112.62,2144.57 2126.28,2161.54"/>
    <edge id="-436993177#1" from="4348259327" to="4348259331" priority="1" type="highway.unclassified" numLanes="1" speed="5.56"/>
    <edge id="-436993178" from="4348259329" to="667357367" priority="1" type="highway.unclassified" numLanes="1" speed="5.56"/>
    <edge id="-436993182" from="4348259340" to="4348259341" priority="1" type="highway.unclassified" numLanes="1" speed="5.56" shape="2282.80,1967.84 2284.86,2004.23 2275.75,2028.51 2262.88,2047.83 2255.49,2053.17"/>
    <edge id="-436993183#0" from="6786321691" to="4348259341" priority="3" type="highway.residential" numLanes="1" speed="13.89" shape="2109.16,2407.94 2118.59,2406.00 2134.42,2408.06 2141.62,2408.10 2152.36,2403.38 2176.82,2401.79 2182.88,2400.60 2187.09,2398.59 2190.83,2392.79 2192.69,2381.43 2200.66,2361.71 2243.48,2330.10 2285.75,2314.42 2295.72,2306.88 2299.94,2299.95 2300.92,2292.65 2299.45,2282.08 2293.17,2249.91 2289.59,2212.90 2282.76,2157.12 2270.90,2099.51 2262.01,2072.58 2255.49,2053.17" disallow="tram rail_urban rail rail_electric rail_fast ship"/>
    <edge id="-436993744" from="4348265098" to="6786321691" priority="3" type="highway.residential" numLanes="1" speed="13.89" shape="1860.21,2270.64 1827.98,2293.73 1819.27,2313.08 1813.46,2334.17 1815.59,2344.87 1842.40,2371.03 1884.15,2439.38 1904.03,2473.09 1926.97,2491.21 1940.22,2509.57 1947.65,2507.26 1960.65,2505.25 1967.25,2496.29 1981.79,2496.86 1991.85,2498.21 2005.59,2493.99 2013.87,2501.66 2025.37,2529.66 2033.79,2547.69 2042.11,2559.08 2063.69,2556.96 2071.82,2551.31 2071.23,2533.55 2076.50,2507.20 2082.03,2471.23 2090.42,2456.69 2096.13,2434.78 2103.45,2414.17 2109.16,2407.94" disallow="tram rail_urban rail rail_electric rail_fast ship"/>
    <edge id="-436993745" from="4348265101" to="4348265099" priority="1" type="highway.unclassified" numLanes="1" speed="5.56" shape="1822.87,2146.02 1854.77,2176.69 1861.45,2180.69 1871.76,2181.96 1886.55,2178.98"/>
    <edge id="-436993746#0" from="4348265105" to="6573701505" priority="1" type="highway.unclassified" numLanes="1" speed="5.56" shape="1736.76,2189.57 1721.51,2191.91 1685.99,2204.58 1649.30,2236.94"/>
    <edge id="-436993746#1" from="4348265107" to="4348265105" priority="1" type="highway.unclassified" numLanes="1" speed="5.56" shape="1747.71,2134.15 1745.89,2149.84 1736.76,2189.57"/>
    <edge id="-436993746#2" from="4348265101" to="4348265107" priority="1" type="highway.unclassified" numLanes="1" speed="5.56"/>
    <edge id="-436993747" from="4348265101" to="4348265105" priority="1" type="highway.unclassified" numLanes="1" speed="5.56" shape="1822.87,2146.02 1814.10,2164.87 1819.70,2205.88 1820.69,2218.91 1816.88,2229.89 1803.44,2239.18 1778.90,2240.59 1759.59,2230.43 1746.21,2209.28 1736.76,2189.57"/>
    <edge id="-439272703" from="4369058864" to="5882320075" priority="1" type="highway.unclassified" numLanes="1" speed="5.56" shape="2077.10,1806.07 2076.58,1865.69 2079.22,1873.81 2083.10,1879.79 2101.43,1890.23"/>
    <edge id="-52511308" from="668685375" to="667357385" priority="1" type="highway.unclassified" numLanes="1" speed="5.56"/>
    <edge id="-52511312" from="667357311" to="667357310" priority="3" type="highway.residential" numLanes="1" speed="13.89" disallow="tram rail_urban rail rail_electric rail_fast ship"/>
    <edge id="-52511313#1" from="667357383" to="cluster_5879215623_5879215625" priority="3" type="highway.residential" numLanes="1" speed="13.89" shape="2305.26,1267.21 2310.25,1161.89" disallow="tram rail_urban rail rail_electric rail_fast ship"/>
    <edge id="-52511313#2" from="668685380" to="667357383" priority="3" type="highway.residential" numLanes="1" speed="13.89" disallow="tram rail_urban rail rail_electric rail_fast ship"/>
    <edge id="-52511313#3" from="667357392" to="668685380" priority="3" type="highway.residential" numLanes="1" speed="13.89" disallow="tram rail_urban rail rail_electric rail_fast ship"/>
    <edge id="-52511313#4" from="6576461331" to="667357392" priority="3" type="highway.residential" numLanes="1" speed="13.89" shape="2226.21,1534.84 2280.41,1536.82 2288.47,1537.68" disallow="tram rail_urban rail rail_electric rail_fast ship"/>
    <edge id="-52511313#5" from="667357407" to="6576461331" priority="3" type="highway.residential" numLanes="1" speed="13.89" shape="2196.81,1650.85 2199.96,1537.84 2205.58,1534.07 2226.21,1534.84" disallow="tram rail_urban rail rail_electric rail_fast ship"/>
    <edge id="-52511314#0" from="cluster_668620092_7147944044_7147944046" to="5366445083" priority="4" type="highway.unclassified" numLanes="1" speed="5.56" shape="1930.62,1809.44 1805.94,1812.22" disallow="tram rail_urban rail rail_electric rail_fast ship"/>
    <edge id="-52511314#3" from="4369058864" to="cluster_668620092_7147944044_7147944046" priority="4" type="highway.unclassified" numLanes="1" speed="5.56" shape="2077.10,1806.07 1936.27,1809.26" disallow="tram rail_urban rail rail_electric rail_fast ship"/>
    <edge id="-52511314#4" from="667357409" to="4369058864" priority="4" type="highway.unclassified" numLanes="1" speed="5.56" shape="2246.34,1802.25 2192.21,1803.47 2134.01,1804.79 2077.10,1806.07" disallow="tram rail_urban rail rail_electric rail_fast ship"/>
    <edge id="-52511314#5" from="667357415" to="667357409" priority="4" type="highway.unclassified" numLanes="1" speed="5.56" disallow="tram rail_urban rail rail_electric rail_fast ship"/>
    <edge id="-52511317#0" from="667362347" to="667357387" priority="1" type="highway.unclassified" numLanes="1" speed="5.56" shape="2118.77,1317.70 2136.00,1317.43 2148.99,1309.43 2198.56,1265.80"/>
    <edge id="-52511317#1" from="667357382" to="667362347" priority="1" type="highway.unclassified" numLanes="1" speed="5.56" shape="2032.22,1266.61 2084.39,1310.28 2096.57,1316.24 2118.77,1317.70"/>
    <edge id="-52511319#0" from="4348259327" to="667357419" priority="1" type="highway.unclassified" numLanes="1" speed="5.56"/>
    <edge id="-52511319#1" from="667357367" to="4348259327" priority="1" type="highway.unclassified" numLanes="1" speed="5.56" shape="1932.16,1970.89 1959.76,1990.42 1986.44,2006.08 2097.44,2006.57"/>
    <edge id="-52511319#2" from="5366445082" to="667357367" priority="1" type="highway.unclassified" numLanes="1" speed="5.56"/>
    <edge id="-52511326#0" from="667357361" to="668672699" priority="3" type="highway.residential" numLanes="1" speed="13.89" disallow="tram rail_urban rail rail_electric rail_fast ship"/>
    <edge id="-52511326#1" from="4348259298" to="667357361" priority="3" type="highway.residential" numLanes="1" speed="13.89" disallow="tram rail_urban rail rail_electric rail_fast ship"/>
    <edge id="-52511330" from="cluster_668620092_7147944044_7147944046" to="667357367" priority="1" type="highway.unclassified" numLanes="1" speed="5.56" shape="1932.32,1809.36 1932.16,1970.89"/>
    <edge id="-52511339#0" from="667357405" to="667357407" priority="3" type="highway.residential" numLanes="1" speed="13.89" shape="2245.02,1679.71 2233.47,1672.62 2201.81,1667.94 2197.22,1661.83 2196.81,1650.85" disallow="tram rail_urban rail rail_electric rail_fast ship"/>
    <edge id="-52511339#1" from="2055461155" to="667357405" priority="3" type="highway.residential" numLanes="1" speed="13.89" shape="2245.93,1736.41 2245.59,1693.80 2245.02,1679.71" disallow="tram rail_urban rail rail_electric rail_fast ship"/>
    <edge id="-52511339#2" from="667357409" to="2055461155" priority="3" type="highway.residential" numLanes="1" speed="13.89" disallow="tram rail_urban rail rail_electric rail_fast ship"/>
    <edge id="-52656539#0" from="4348265099" to="668612331" priority="3" type="highway.residential" numLanes="1" speed="13.89" shape="1886.55,2178.98 1892.91,2173.50 1907.87,2166.43" disallow="tram rail_urban rail rail_electric rail_fast ship"/>
    <edge id="-52656539#1" from="4348265098" to="4348265099" priority="3" type="highway.residential" numLanes="1" speed="13.89" shape="1860.21,2270.64 1882.61,2185.83 1886.55,2178.98" disallow="tram rail_urban rail rail_electric rail_fast ship"/>
    <edge id="-52656692#0" from="667357401" to="668685380" priority="3" type="highway.residential" numLanes="1" speed="13.89" shape="2350.23,1542.76 2367.62,1412.81 2368.16,1320.67 2303.42,1318.19" disallow="tram rail_urban rail rail_electric rail_fast ship"/>
    <edge id="-52656692#1" from="667357415" to="667357401" priority="3" type="highway.residential" numLanes="1" speed="13.89" shape="2328.77,1800.38 2335.73,1677.85 2346.51,1577.22 2350.23,1542.76" disallow="tram rail_urban rail rail_electric rail_fast ship"/>
    <edge id="-52656694" from="667357409" to="667357412" priority="3" type="highway.residential" numLanes="1" speed="13.89" shape="2246.34,1802.25 2225.25,1823.53 2218.72,1831.46 2211.77,1840.52 2209.94,1852.47 2210.69,1873.34" disallow="tram rail_urban rail rail_electric rail_fast ship"/>
    <edge id="-52663744#0" from="667357309" to="668660548" priority="3" type="highway.residential" numLanes="1" speed="13.89" disallow="tram rail_urban rail rail_electric rail_fast ship"/>
    <edge id="-52663744#1" from="667357310" to="667357309" priority="3" type="highway.residential" numLanes="1" speed="13.89" disallow="tram rail_urban rail rail_electric rail_fast ship"/>
    <edge id="-52663744#2" from="6495983054" to="667357310" priority="3" type="highway.residential" numLanes="1" speed="13.89" disallow="tram rail_urban rail rail_electric rail_fast ship"/>
    <edge id="-52663744#3" from="667357317" to="6495983054" priority="3" type="highway.residential" numLanes="1" speed="13.89" shape="1843.98,1147.71 1851.73,1080.72 1867.21,1035.15" disallow="tram rail_urban rail rail_electric rail_fast ship"/>
    <edge id="-52663745#0" from="667357368" to="5879215641" priority="1" type="highway.unclassified" numLanes="1" speed="5.56"/>
    <edge id="-52663745#1" from="5366445105" to="667357368" priority="1" type="highway.unclassified" numLanes="1" speed="5.56"/>
    <edge id="-52664437#0" from="667357317" to="668699249" priority="4" type="highway.unclassified" numLanes="1" speed="13.89" disallow="tram rail_urban rail rail_electric rail_fast ship"/>
    <edge id="-52664437#1" from="6568909609" to="667357317" priority="4" type="highway.unclassified" numLanes="1" speed="13.89" shape="1806.06,1175.58 1815.18,1171.32 1823.20,1167.79 1836.12,1158.98 1843.98,1147.71" disallow="tram rail_urban rail rail_electric rail_fast ship"/>
    <edge id="-52664437#2" from="667357318" to="6568909609" priority="4" type="highway.unclassified" numLanes="1" speed="13.89" shape="1745.56,1179.25 1787.02,1177.21 1806.06,1175.58" disallow="tram rail_urban rail rail_electric rail_fast ship"/>
    <edge id="-52664440#0" from="668699193" to="668699242" priority="1" type="highway.unclassified" numLanes="1" speed="5.56" shape="1340.72,732.02 1459.61,740.64 1491.31,747.59"/>
    <edge id="-52664441#0" from="6627410442" to="668699237" priority="1" type="highway.unclassified" numLanes="1" speed="5.56" shape="1814.00,807.59 1782.53,808.46 1704.30,803.79"/>
    <edge id="-52664441#1" from="667357309" to="6627410442" priority="1" type="highway.unclassified" numLanes="1" speed="5.56" shape="1919.37,887.82 1897.54,829.55 1889.41,810.14 1883.68,802.92 1874.86,797.68 1861.17,797.71 1835.54,807.00 1814.00,807.59"/>
    <edge id="-556314738#0" from="5584937650" to="668672704" priority="3" type="highway.residential" numLanes="1" speed="13.89" disallow="tram rail_urban rail rail_electric rail_fast ship"/>
    <edge id="-556314738#1" from="5366445085" to="5584937650" priority="3" type="highway.residential" numLanes="1" speed="13.89" disallow="tram rail_urban rail rail_electric rail_fast ship"/>
    <edge id="-556314738#2" from="5366445092" to="5366445085" priority="3" type="highway.residential" numLanes="1" speed="13.89" disallow="tram rail_urban rail rail_electric rail_fast ship"/>
    <edge id="-556314738#3" from="668672699" to="5366445092" priority="3" type="highway.residential" numLanes="1" speed="13.89" shape="1434.93,2001.78 1528.15,1987.88 1627.19,1983.50" disallow="tram rail_urban rail rail_electric rail_fast ship"/>
    <edge id="-556314750#0" from="5366445105" to="667357325" priority="3" type="highway.residential" numLanes="1" speed="13.89" disallow="tram rail_urban rail rail_electric rail_fast ship"/>
    <edge id="-556314750#1" from="667357382" to="5366445105" priority="3" type="highway.residential" numLanes="1" speed="13.89" disallow="tram rail_urban rail rail_electric rail_fast ship"/>
    <edge id="-556314750#2" from="667357385" to="667357382" priority="3" type="highway.residential" numLanes="1" speed="13.89" disallow="tram rail_urban rail rail_electric rail_fast ship"/>
    <edge id="-556314750#3" from="667357387" to="667357385" priority="3" type="highway.residential" numLanes="1" speed="13.89" disallow="tram rail_urban rail rail_electric rail_fast ship"/>
    <edge id="-556314750#4" from="667357383" to="667357387" priority="3" type="highway.residential" numLanes="1" speed="13.89" disallow="tram rail_urban rail rail_electric rail_fast ship"/>
    <edge id="-568771388#0" from="667357330" to="245674992" priority="4" type="highway.unclassified" numLanes="1" speed="13.89" shape="1581.86,1478.63 1589.36,1508.31 1587.75,1522.25 1473.84,1620.87 1422.75,1669.87 1406.24,1697.46 1409.34,1790.02" disallow="tram rail_urban rail rail_electric rail_fast ship"/>
    <edge id="-568771388#1" from="667357326" to="667357330" priority="4" type="highway.unclassified" numLanes="1" speed="13.89" shape="1733.99,1421.53 1734.28,1447.09 1731.04,1459.76 1717.69,1475.91 1692.05,1484.46 1667.53,1482.69 1628.46,1473.31 1599.26,1461.89 1589.19,1465.10 1581.86,1478.63" disallow="tram rail_urban rail rail_electric rail_fast ship"/>
    <edge id="-568771388#2" from="667357318" to="667357326" priority="4" type="highway.unclassified" numLanes="1" speed="13.89" shape="1745.56,1179.25 1745.91,1184.32 1751.19,1262.29 1756.49,1268.97 1768.68,1278.06 1773.29,1286.17 1770.48,1304.17 1764.04,1318.29 1758.54,1352.05 1753.91,1360.34 1744.47,1363.54 1741.32,1368.87 1739.70,1376.80 1737.57,1388.88 1734.95,1404.99 1733.99,1421.53" disallow="tram rail_urban rail rail_electric rail_fast ship"/>
    <edge id="-622415774#0" from="5879215642" to="5879215643" priority="1" type="highway.unclassified" numLanes="1" speed="5.56"/>
    <edge id="-622415774#1" from="667357368" to="5879215642" priority="1" type="highway.unclassified" numLanes="1" speed="5.56"/>
    <edge id="-622415774#2" from="668685375" to="667357368" priority="1" type="highway.unclassified" numLanes="1" speed="5.56"/>
    <edge id="-622415774#3" from="5879215634" to="668685375" priority="1" type="highway.unclassified" numLanes="1" speed="5.56" shape="2257.80,1137.40 2244.76,1146.97 2220.51,1152.02 2206.08,1149.94 2180.11,1144.53 2169.63,1140.19"/>
    <edge id="-622415774#4" from="cluster_5879215623_5879215625" to="5879215634" priority="1" type="highway.unclassified" numLanes="1" speed="5.56" shape="2305.83,1148.69 2279.32,1133.38 2257.80,1137.40"/>
    <edge id="-622415784" from="5879215642" to="5879215644" priority="1" type="highway.unclassified" numLanes="1" speed="5.56"/>
    <edge id="-622415786#0" from="5879215641" to="5879215634" priority="1" type="highway.unclassified" numLanes="1" speed="5.56" shape="2097.61,921.75 2105.12,944.64 2120.56,961.01 2151.83,979.45 2190.35,1023.16 2224.43,1035.86 2238.72,1055.14 2245.36,1074.00 2243.17,1087.77 2243.61,1101.23 2245.95,1108.50 2257.80,1137.40"/>
    <edge id="-622415786#1" from="5879215644" to="5879215641" priority="1" type="highway.unclassified" numLanes="1" speed="5.56" shape="2060.75,885.60 2073.76,895.06 2094.48,904.91 2098.23,911.05 2098.56,914.97 2097.61,921.75"/>
    <edge id="-622415786#2" from="5879215646" to="5879215644" priority="1" type="highway.unclassified" numLanes="1" speed="5.56" shape="2015.96,855.17 2051.79,878.73 2060.75,885.60"/>
    <edge id="-622415786#3" from="5879215645" to="5879215646" priority="1" type="highway.unclassified" numLanes="1" speed="5.56"/>
    <edge id="-686607369" from="6435688923" to="6435688924" priority="3" type="highway.residential" numLanes="1" speed="13.89" disallow="tram rail_urban rail rail_electric rail_fast ship"/>
    <edge id="-692042225" from="6495983054" to="6495983060" priority="3" type="highway.residential" numLanes="1" speed="13.89" shape="1867.21,1035.15 1855.79,1032.35 1846.44,1029.93 1827.52,1029.59 1801.06,1034.96 1783.54,1033.77 1775.26,1026.01" disallow="tram rail_urban rail rail_electric rail_fast ship"/>
    <edge id="-699526247" from="6568909593" to="6568909594" priority="1" type="highway.unclassified" numLanes="1" speed="5.56"/>
    <edge id="-699526248#0" from="6568909593" to="6568909609" priority="1" type="highway.unclassified" numLanes="1" speed="5.56" shape="1872.77,1350.62 1875.89,1273.40 1869.00,1263.95 1859.93,1261.25 1840.21,1264.30 1825.12,1265.60 1817.48,1263.73 1813.63,1260.68 1811.59,1254.82 1806.06,1175.58"/>
    <edge id="-699526248#1" from="6573854574" to="6568909593" priority="1" type="highway.unclassified" numLanes="1" speed="5.56"/>
    <edge id="-699526248#2" from="6568909595" to="6573854574" priority="1" type="highway.unclassified" numLanes="1" speed="5.56" shape="1908.53,1505.36 1892.68,1498.24 1875.67,1492.83 1863.70,1482.31 1871.42,1368.51"/>
    <edge id="-699796291#0" from="6571330022" to="6571330023" priority="1" type="highway.unclassified" numLanes="1" speed="5.56"/>
    <edge id="-699796291#1" from="6571330021" to="6571330022" priority="1" type="highway.unclassified" numLanes="1" speed="5.56"/>
    <edge id="-699851820" from="6572115060" to="667357421" priority="1" type="highway.unclassified" numLanes="1" speed="5.56" shape="1933.61,2421.11 1926.80,2393.98 1917.85,2353.96 1911.96,2309.14 1911.08,2283.34 1915.07,2263.65 1930.87,2239.05 1946.18,2225.23"/>
    <edge id="-700019123#0" from="6573701505" to="4348265107" priority="1" type="highway.unclassified" numLanes="1" speed="5.56" shape="1649.30,2236.94 1630.84,2227.07 1626.24,2220.25 1624.30,2211.71 1620.20,2199.41 1624.45,2188.42 1640.59,2169.72 1650.65,2161.18 1656.12,2158.30 1667.53,2156.63 1693.11,2153.38 1699.22,2150.64 1711.78,2139.26 1722.68,2130.16 1744.17,2133.55 1747.71,2134.15"/>
    <edge id="-700019123#1" from="6573701501" to="6573701505" priority="1" type="highway.unclassified" numLanes="1" speed="5.56" shape="1716.34,2249.47 1712.75,2256.10 1703.49,2260.99 1697.01,2261.63 1684.54,2257.70 1667.20,2246.83 1649.30,2236.94"/>
    <edge id="-700019124" from="4348265101" to="6573701524" priority="1" type="highway.unclassified" numLanes="1" speed="5.56" shape="1822.87,2146.02 1827.76,2136.48 1840.83,2120.74 1848.12,2116.03 1854.30,2113.15 1889.71,2109.66"/>
    <edge id="-705414725" from="6627410440" to="6627410442" priority="1" type="highway.unclassified" numLanes="1" speed="5.56"/>
    <edge id="-723323003" from="4348259341" to="cluster_4348259335_7265460758" priority="3" type="highway.residential" numLanes="1" speed="13.89" shape="2255.49,2053.17 2227.97,2051.74 2208.66,2050.58" disallow="tram rail_urban rail rail_electric rail_fast ship"/>
    <edge id="-723323006#0" from="6495983060" to="667357318" priority="4" type="highway.unclassified" numLanes="1" speed="13.89" shape="1775.26,1026.01 1768.06,1095.55 1745.56,1179.25" disallow="tram rail_urban rail rail_electric rail_fast ship"/>
    <edge id="-723323006#1" from="668699237" to="6495983060" priority="4" type="highway.unclassified" numLanes="1" speed="13.89" shape="1704.30,803.79 1734.32,835.14 1743.49,846.95 1749.16,861.20 1775.26,1026.01" disallow="tram rail_urban rail rail_electric rail_fast ship"/>
    <edge id="-723323006#2" from="6435688924" to="668699237" priority="4" type="highway.unclassified" numLanes="1" speed="13.89" disallow="tram rail_urban rail rail_electric rail_fast ship"/>
    <edge id="-723323006#3" from="668699242" to="6435688924" priority="4" type="highway.unclassified" numLanes="1" speed="13.89" shape="1491.31,747.59 1528.70,771.72 1540.83,777.82 1553.22,780.20 1602.12,781.04 1621.70,782.25 1653.58,787.56 1683.26,798.19" disallow="tram rail_urban rail rail_electric rail_fast ship"/>
    <edge id="-723323006#4" from="668699234" to="668699242" priority="4" type="highway.unclassified" numLanes="1" speed="13.89" shape="1489.47,640.61 1490.63,648.31 1491.31,747.59" disallow="tram rail_urban rail rail_electric rail_fast ship"/>
    <edge id="-723323007" from="667357326" to="6573854574" priority="1" type="highway.unclassified" numLanes="1" speed="5.56" shape="1733.99,1421.53 1739.94,1421.49 1787.90,1422.89 1791.83,1420.32 1793.76,1416.64 1794.22,1373.01 1796.57,1368.63 1801.77,1365.90 1812.50,1366.34 1871.42,1368.51"/>
    <edge id="-723512526" from="667357401" to="667357392" priority="3" type="highway.residential" numLanes="1" speed="13.89" shape="2350.23,1542.76 2304.15,1538.79 2288.47,1537.68" disallow="tram rail_urban rail rail_electric rail_fast ship"/>
    <edge id="-723515093#0" from="4348259295" to="668672574" priority="3" type="highway.residential" numLanes="1" speed="13.89" disallow="tram rail_urban rail rail_electric rail_fast ship"/>
    <edge id="-723515093#1" from="668672699" to="4348259295" priority="3" type="highway.residential" numLanes="1" speed="13.89" disallow="tram rail_urban rail rail_electric rail_fast ship"/>